108
 nfi=0 etot=       -137.31558748
Ar            6.67103294         -10.61468714          12.63369399
Ar            1.06574059          -3.33432278          -2.59038678
Ar           -1.78412296         -16.52594584           4.61680015
Ar            9.81030289          -5.82405964           3.65645975
Ar           15.32472111          -4.78053307           8.26672732
Ar            2.11253839          -4.72955953           6.75738627
Ar           -4.56209228          -3.20329426           5.55255473
Ar            5.86663918         -10.41394119           1.86416360
Ar            5.21527405         -28.92777262           6.19270144
Ar           13.70510462          -4.97120493           1.94629700
Ar            4.19613240         -14.97908229          16.53338806
Ar           16.75215027         -10.08042416          14.50284989
Ar           12.63502293          -1.40635636           2.38627163
Ar           -1.08439967           2.41557722           8.37791672
Ar            8.96146834         -19.02728340           4.05806985
Ar           11.14590365           3.18552373           0.06723295
Ar           16.06909897          -1.03744621          18.56557336
Ar           18.69844794         -17.64916437           3.60417711
Ar           -3.13161416          -6.75371568           5.00611042
Ar           17.40726591          -7.88472086           7.56603711
Ar           19.64998708         -10.28135453           3.47269994
Ar            9.14358801          10.57694233          11.04348160
Ar           12.38529781         -11.01587333          20.03376067
Ar            6.18023615          -4.34746307           5.42729289
Ar            0.43640335          -1.36655908           7.37333479
Ar           -0.92090551          -3.30961460          21.56169889
Ar            3.31118740         -20.77604605          20.31727129
Ar            0.50710550         -21.65679497           0.93384006
Ar           14.42137091         -20.34312871          15.43095309
Ar            5.56191131          -7.25872501          12.45689600
Ar            3.06146524         -14.40872334           6.69325558
Ar           -1.37943238         -10.10536351           4.64502789
Ar            7.52415339         -14.47332549          18.76733174
Ar           -5.87703922           1.37272406          13.43388579
Ar            0.83026016           5.33087087          11.08161419
Ar            2.70133951         -18.76361023           0.12005569
Ar            9.27050984         -10.90721060           0.88933166
Ar            9.08594738         -17.52218023           0.68638637
Ar            5.25139951         -17.49696906          19.31717860
Ar           13.26810255         -13.85236383           5.66497232
Ar           15.21017907           2.32029737          11.69694712
Ar           11.27443793          -3.31524721           9.80174696
Ar           11.36722217          -7.00573339          -0.08863893
Ar           12.68071436          -0.18960366          16.33254621
Ar           13.19353416          -1.62543721          29.59557882
Ar           15.37455794         -22.00452449          -4.92637554
Ar           16.42802802          -8.26617967          11.45187868
Ar           17.82373717         -15.28626636          17.69960451
Ar           13.06414383         -10.84864570          16.08475036
Ar            7.73638629           1.84526543          15.18337817
Ar           10.25711286         -11.94457470          14.21926065
Ar            3.77699860           2.92447971           2.90610323
Ar            9.87198947          -1.85194776          14.33362219
Ar            9.34121496          -0.11026610          10.24219949
Ar            6.42953095         -11.96582675          -1.27607223
Ar            0.31207593         -13.52093216           4.30576573
Ar           21.88493067          -8.32941967          15.78312386
Ar           -1.73962015          -6.92520933          15.08778900
Ar           15.32587111         -10.93706365           8.75014860
Ar            5.62898476           1.22206411           9.13368455
Ar            4.36630449          -7.17